[General]
network = SAOCOMNetwork
record-eventlog = true
sim-time-limit = 172800s
**.vector-recording = true
*.groundNetworkChannel.usageTime.record = true
output-vector-file = results.vec