[General]
network = SAOCOMNetwork
record-eventlog = true
sim-time-limit = 518400s
**.vector-recording = true
*.groundNetworkChannel.usageTime.record = true
output-vector-file = results.vec
*.sim_start_time_year = 2019
*.sim_start_time_month = 2
*.sim_start_time_day = 23